 &time_control
 run_days                            = 0,
 run_hours                           = 42,
 run_minutes                         = 0,
 run_seconds                         = 0,
 start_year                          = 2014, 2014, 2014, 2014,
 start_month                         = 08, 08, 08, 08,
 start_day                           = 20, 20, 20, 20,
 start_hour                          = 00, 00, 00, 00,
 start_minute                        = 00,   00,   00,   00,
 start_second                        = 00,   00,   00,   00,
 end_year                            = 2014, 2014, 2014, 2014,
 end_month                           = 08, 08, 08, 08,
 end_day                             = 22, 22, 22, 22,
 end_hour                            = 12, 12, 12, 12,
 end_minute                          = 00,   00,   00,   00,
 end_second                          = 00,   00,   00,   00,
 interval_seconds                    = 21600
 input_from_file                     = .true.,.true.,.true.,.true.,
 history_interval                    = 60,   60,  60,   60
 frames_per_outfile                  = 1,    1,   1,    1,
 restart                             = .false.,
 restart_interval                    = 5000,
 io_form_history                     = 2
 io_form_restart                     = 2
 io_form_input                       = 2
 io_form_boundary                    = 2
 debug_level                         = 0
 /

 &domains
 time_step                           = 90,
 time_step_fract_num                 = 0,
 time_step_fract_den                 = 1,
 max_dom                             = 2,
 e_we                                = 180,  481,   131,  161,
 e_sn                                = 160,  361,   131,  161,
 e_vert                              = 41,    41,    41,   41,
 p_top_requested                     = 5000,
 num_metgrid_levels                  = 27,
 num_metgrid_soil_levels             = 4,
 dx                                  = 25000, 5000, 5000, 1000,
 dy                                  = 25000, 5000, 5000, 1000,
 grid_id                             = 1,     2,     3,     4,
 parent_id                           = 1,     1,     2,     3,
 i_parent_start                      = 1,     35,    29,    52,
 j_parent_start                      = 1,     38,    30,    49,
 parent_grid_ratio                   = 1,     5,     5,     5,
 parent_time_step_ratio              = 1,     5,     5,     5,
 feedback                            = 0,
 smooth_option                       = 0,
 /

 &physics
 mp_physics                          = 6,     6,     6,     6,
 ra_lw_physics                       = 4,     4,     4,     4,
 ra_sw_physics                       = 4,     4,     4,     4,
 radt                                = 25,    25,    25,    25,
 sf_sfclay_physics                   = 4,     4,     1,     1,
 sf_surface_physics                  = 2,     2,     2,     2,
 bl_pbl_physics                      = 4,     4,     7,     7,
 mfshconv                            = 0,     0,     0,     0,
 bldt                                = 0,     0,     0,     0,
 cu_physics                          = 1,     0,     0,     0,
 cudt                                = 0,     0,     0,     0,
 isfflx                              = 1,
 ifsnow                              = 1,
 icloud                              = 1,
 surface_input_source                = 1,
 num_soil_layers                     = 4,
 sf_urban_physics                    = 0,     0,     0,     0,
 sf_surface_mosaic                   = 1,
 num_land_cat                        = 21,
 usemonalb                           = .true.,
 rdlai2d                             = .true.,
 iz0tlnd                             = 0,
 slope_rad                           = 0,     0,     0,     0,
 no_mp_heating                       = 0,
 sf_lake_physics                     = 0,     0,     0,     0,
 /

 &fdda
 /

 &dynamics
 w_damping                           = 0,
 diff_opt                            = 1,      1,      1,      1,
 km_opt                              = 4,      4,      4,      4,
 diff_6th_opt                        = 0,      0,      0,      0,
 diff_6th_factor                     = 0.12,   0.12,   0.12,   0.12,
 base_temp                           = 290.
 damp_opt                            = 0,
 zdamp                               = 5000.,  5000.,  5000.,  5000.,
 dampcoef                            = 0.2,    0.2,    0.2,    0.2,
 khdif                               = 0,      0,      0,      0,
 kvdif                               = 0,      0,      0,      0,
 non_hydrostatic                     = .true., .true., .true., .true.,
 moist_adv_opt                       = 1,      1,      1,      1,
 scalar_adv_opt                      = 1,      1,      1,      1,
 gwd_opt                             = 0,
 /

 &bdy_control
 spec_bdy_width                      = 5,
 spec_zone                           = 1,
 relax_zone                          = 4,
 specified                           = .true., .false.,.false.,.false.,
 nested                              = .false., .true., .true., .true.,
 /

 &grib2
 /

 &namelist_quilt
 nio_tasks_per_group = 0,
 nio_groups = 1,
 /
